@<TRIPOS>MOLECULE
10mh_SAH_1_ligand
   46    48     1     0     0
SMALL
NO_CHARGES


@<TRIPOS>ATOM
     1 N          -18.1870    32.4170    82.3710 N.4          1 SAH328   1.0000
     2 CA         -18.8440    31.5450    83.3080 C.3          1 SAH328   0.0000
     3 CB         -18.8230    32.1670    84.7070 C.3          1 SAH328   0.0000
     4 CG         -17.5020    31.9720    85.4500 C.3          1 SAH328   0.0000
     5 SD         -17.0890    33.2350    86.6900 S.3          1 SAH328   0.0000
     6 C          -20.2740    31.3600    82.8550 C.2          1 SAH328   0.0000
     7 O          -20.6300    31.2850    81.6090 O.co2        1 SAH328   0.0000
     8 OXT        -20.9860    30.7500    83.7250 O.co2        1 SAH328  -1.0000
     9 C5'        -15.5980    32.4610    87.3790 C.3          1 SAH328   0.0000
    10 C4'        -15.6540    31.0200    88.0780 C.3          1 SAH328   0.0000
    11 O4'        -14.3850    30.6720    88.6220 O.3          1 SAH328   0.0000
    12 C3'        -16.5190    30.8740    89.3680 C.3          1 SAH328   0.0000
    13 O3'        -17.6100    30.0520    89.0670 O.3          1 SAH328   0.0000
    14 C2'        -15.6030    30.1810    90.3950 C.3          1 SAH328   0.0000
    15 O2'        -16.4250    29.2710    91.0820 O.3          1 SAH328   0.0000
    16 C1'        -14.6310    29.5390    89.4400 C.3          1 SAH328   0.0000
    17 N9         -13.3030    29.2520    89.9390 N.pl3        1 SAH328   0.0000
    18 C8         -12.5480    30.1690    90.6450 C.2          1 SAH328   0.0000
    19 N7         -11.3630    29.7020    90.9750 N.2          1 SAH328   0.0000
    20 C5         -11.3390    28.4140    90.4580 C.ar         1 SAH328   0.0000
    21 C6         -10.3590    27.4470    90.5040 C.ar         1 SAH328   0.0000
    22 N6          -9.2860    27.6820    91.2240 N.pl3        1 SAH328   0.0000
    23 N1         -10.5440    26.2610    89.9160 N.ar         1 SAH328   0.0000
    24 C2         -11.7140    26.0490    89.3090 C.ar         1 SAH328   0.0000
    25 N3         -12.7480    26.8860    89.2150 N.ar         1 SAH328   0.0000
    26 C4         -12.5010    28.0980    89.8180 C.ar         1 SAH328   0.0000
    27 H1         -17.2136    32.1914    82.3317 H            1 SAH328   0.0000
    28 H2         -18.5933    32.2994    81.4648 H            1 SAH328   0.0000
    29 HA         -18.3796    30.6596    83.3264 H            1 SAH328   0.0000
    30 HB1        -19.5534    31.7502    85.2481 H            1 SAH328   0.0000
    31 HB2        -18.9926    33.1485    84.6180 H            1 SAH328   0.0000
    32 HG1        -16.7683    31.9592    84.7707 H            1 SAH328   0.0000
    33 HG2        -17.5408    31.0878    85.9155 H            1 SAH328   0.0000
    34 H5'1       -15.2419    33.0948    88.0657 H            1 SAH328   0.0000
    35 H5'2       -14.9450    32.3846    86.6255 H            1 SAH328   0.0000
    36 H4'        -15.9321    30.3321    87.4076 H            1 SAH328   0.0000
    37 H3'        -16.8222    31.7669    89.7010 H            1 SAH328   0.0000
    38 H12        -17.2802    29.1561    88.7694 H            1 SAH328   0.0000
    39 H2'        -15.1588    30.8325    91.0100 H            1 SAH328   0.0000
    40 H14        -16.4127    28.3891    90.6106 H            1 SAH328   0.0000
    41 H1'        -15.0302    28.7740    88.9347 H            1 SAH328   0.0000
    42 H16        -12.8673    31.0872    90.8795 H            1 SAH328   0.0000
    43 H17         -8.5586    26.9977    91.2754 H            1 SAH328   0.0000
    44 H18         -9.1964    28.5452    91.7208 H            1 SAH328   0.0000
    45 H19        -11.8287    25.1564    88.8729 H            1 SAH328   0.0000
    46 H20        -18.2975    33.3663    82.6652 H            1 SAH328   0.0000
@<TRIPOS>BOND
     1    1    2       1
     2    2    3       1
     3    2    6       1
     4    3    4       1
     5    4    5       1
     6    5    9       1
     7    6    7      ar
     8    6    8      ar
     9    9   10       1
    10   10   11       1
    11   10   12       1
    12   11   16       1
    13   12   13       1
    14   12   14       1
    15   14   15       1
    16   14   16       1
    17   16   17       1
    18   17   18       1
    19   17   26       1
    20   18   19       2
    21   19   20       1
    22   20   21      ar
    23   20   26      ar
    24   21   22       1
    25   21   23      ar
    26   23   24      ar
    27   24   25      ar
    28   25   26      ar
    29    1   27       1
    30    1   28       1
    31    2   29       1
    32    3   30       1
    33    3   31       1
    34    4   32       1
    35    4   33       1
    36    1   46       1
    37    9   34       1
    38    9   35       1
    39   10   36       1
    40   12   37       1
    41   13   38       1
    42   14   39       1
    43   15   40       1
    44   16   41       1
    45   18   42       1
    46   22   43       1
    47   22   44       1
    48   24   45       1
@<TRIPOS>SUBSTRUCTURE
     1 SAH328      1 GROUP             4 A     SAH     0 **** SAH A 328
